424 
snap energy 25.8320007324 0.0 0.0 0.0 25.8320007324 0.0 0.0 0.0 25.8320007324 
Zn 7.579108746 5.336891235 5.336891235
Zn 18.252891986 20.495109113 20.495109113
Zn 18.252891986 20.495109113 5.336891235
Zn 7.579108746 5.336891235 20.495109113
Zn 18.252891986 5.336891235 20.495109113
Zn 7.579108746 20.495109113 5.336891235
Zn 7.579108746 20.495109113 20.495109113
Zn 18.252891986 5.336891235 5.336891235
Zn 5.336891235 7.579108746 5.336891235
Zn 20.495109113 18.252891986 20.495109113
Zn 5.336891235 18.252891986 20.495109113
Zn 20.495109113 7.579108746 5.336891235
Zn 20.495109113 18.252891986 5.336891235
Zn 5.336891235 7.579108746 20.495109113
Zn 20.495109113 7.579108746 20.495109113
Zn 5.336891235 18.252891986 5.336891235
Zn 5.336891235 5.336891235 7.579108746
Zn 20.495109113 20.495109113 18.252891986
Zn 20.495109113 5.336891235 18.252891986
Zn 5.336891235 20.495109113 7.579108746
Zn 5.336891235 20.495109113 18.252891986
Zn 20.495109113 5.336891235 7.579108746
Zn 20.495109113 20.495109113 7.579108746
Zn 5.336891235 5.336891235 18.252891986
Zn 7.579108746 18.252891986 18.252891986
Zn 18.252891986 7.579108746 7.579108746
Zn 18.252891986 7.579108746 18.252891986
Zn 7.579108746 18.252891986 7.579108746
Zn 18.252891986 18.252891986 7.579108746
Zn 7.579108746 7.579108746 18.252891986
Zn 7.579108746 7.579108746 7.579108746
Zn 18.252891986 18.252891986 18.252891986
O 6.458000183 6.458000183 6.458000183
O 19.374000549 19.374000549 19.374000549
O 19.374000549 19.374000549 6.458000183
O 6.458000183 6.458000183 19.374000549
O 19.374000549 6.458000183 19.374000549
O 6.458000183 19.374000549 6.458000183
O 6.458000183 19.374000549 19.374000549
O 19.374000549 6.458000183 6.458000183
O 7.282040713 5.633959268 3.461488184
O 18.549960019 20.198041080 22.370512548
O 18.549960019 20.198041080 3.461488184
O 7.282040713 5.633959268 22.370512548
O 18.549960019 5.633959268 22.370512548
O 7.282040713 20.198041080 3.461488184
O 7.282040713 20.198041080 22.370512548
O 18.549960019 5.633959268 3.461488184
O 3.461488184 7.282040713 5.633959268
O 22.370512548 18.549960019 20.198041080
O 3.461488184 18.549960019 20.198041080
O 22.370512548 7.282040713 5.633959268
O 22.370512548 18.549960019 5.633959268
O 3.461488184 7.282040713 20.198041080
O 22.370512548 7.282040713 20.198041080
O 3.461488184 18.549960019 5.633959268
O 5.633959268 3.461488184 7.282040713
O 20.198041080 22.370512548 18.549960019
O 20.198041080 3.461488184 18.549960019
O 5.633959268 22.370512548 7.282040713
O 5.633959268 22.370512548 18.549960019
O 20.198041080 3.461488184 7.282040713
O 20.198041080 22.370512548 7.282040713
O 5.633959268 3.461488184 18.549960019
O 5.633959268 7.282040713 22.370512548
O 20.198041080 18.549960019 3.461488184
O 20.198041080 18.549960019 22.370512548
O 5.633959268 7.282040713 3.461488184
O 5.633959268 18.549960019 3.461488184
O 20.198041080 7.282040713 22.370512548
O 20.198041080 7.282040713 3.461488184
O 5.633959268 18.549960019 22.370512548
O 7.282040713 3.461488184 20.198041080
O 18.549960019 22.370512548 5.633959268
O 18.549960019 3.461488184 5.633959268
O 7.282040713 22.370512548 20.198041080
O 18.549960019 22.370512548 20.198041080
O 7.282040713 3.461488184 5.633959268
O 7.282040713 22.370512548 5.633959268
O 18.549960019 3.461488184 20.198041080
O 3.461488184 5.633959268 18.549960019
O 22.370512548 20.198041080 7.282040713
O 3.461488184 20.198041080 7.282040713
O 22.370512548 5.633959268 18.549960019
O 22.370512548 5.633959268 7.282040713
O 3.461488184 20.198041080 18.549960019
O 22.370512548 20.198041080 18.549960019
O 3.461488184 5.633959268 7.282040713
O 7.282040713 18.549960019 16.377488551
O 18.549960019 7.282040713 9.454512182
O 18.549960019 7.282040713 16.377488551
O 7.282040713 18.549960019 9.454512182
O 18.549960019 18.549960019 9.454512182
O 7.282040713 7.282040713 16.377488551
O 7.282040713 7.282040713 9.454512182
O 18.549960019 18.549960019 16.377488551
O 5.633959268 16.377488551 20.198041080
O 20.198041080 9.454512182 5.633959653
O 20.198041080 16.377488551 5.633959653
O 5.633959268 9.454512182 20.198041080
O 5.633959268 9.454512182 5.633959653
O 20.198041080 16.377488551 20.198041080
O 20.198041080 9.454512182 20.198041080
O 5.633959268 16.377488551 5.633959653
O 5.633959268 20.198041080 9.454512182
O 20.198041080 5.633959653 16.377488551
O 20.198041080 5.633959653 9.454512182
O 5.633959268 20.198041080 16.377488551
O 5.633959268 5.633959653 16.377488551
O 20.198041080 20.198041080 9.454512182
O 20.198041080 20.198041080 16.377488551
O 5.633959268 5.633959653 9.454512182
O 7.282040713 16.377488551 7.282040713
O 18.549960019 9.454512182 18.549960019
O 18.549960019 16.377488551 18.549960019
O 7.282040713 9.454512182 7.282040713
O 18.549960019 9.454512182 7.282040713
O 7.282040713 16.377488551 18.549960019
O 7.282040713 9.454512182 18.549960019
O 18.549960019 16.377488551 7.282040713
O 16.377488551 7.282040713 18.549960019
O 9.454512182 18.549960019 7.282040713
O 16.377488551 18.549960019 7.282040713
O 9.454512182 7.282040713 18.549960019
O 9.454512182 18.549960019 18.549960019
O 16.377488551 7.282040713 7.282040713
O 9.454512182 7.282040713 7.282040713
O 16.377488551 18.549960019 18.549960019
O 16.377488551 5.633959268 5.633959653
O 9.454512182 20.198041080 20.198041080
O 16.377488551 20.198041080 20.198041080
O 9.454512182 5.633959268 5.633959653
O 9.454512182 5.633959268 20.198041080
O 16.377488551 20.198041080 5.633959653
O 9.454512182 20.198041080 5.633959653
O 16.377488551 5.633959268 20.198041080
C 6.458000183 6.458000183 2.875101657
C 19.374000549 19.374000549 22.956899268
C 19.374000549 19.374000549 2.875101657
C 6.458000183 6.458000183 22.956899268
C 19.374000549 6.458000183 22.956899268
C 6.458000183 19.374000549 2.875101657
C 6.458000183 19.374000549 22.956899268
C 19.374000549 6.458000183 2.875101657
C 2.875101657 6.458000183 6.458000183
C 22.956899268 19.374000549 19.374000549
C 2.875101657 19.374000549 19.374000549
C 22.956899268 6.458000183 6.458000183
C 22.956899268 19.374000549 6.458000183
C 2.875101657 6.458000183 19.374000549
C 22.956899268 6.458000183 19.374000549
C 2.875101657 19.374000549 6.458000183
C 6.458000183 2.875101657 6.458000183
C 19.374000549 22.956899268 19.374000549
C 19.374000549 2.875101657 19.374000549
C 6.458000183 22.956899268 6.458000183
C 6.458000183 22.956899268 19.374000549
C 19.374000549 2.875101657 6.458000183
C 19.374000549 22.956899268 6.458000183
C 6.458000183 2.875101657 19.374000549
C 6.458000183 19.374000549 15.791101831
C 19.374000549 6.458000183 10.040898901
C 19.374000549 6.458000183 15.791101831
C 6.458000183 19.374000549 10.040898901
C 19.374000549 19.374000549 10.040898901
C 6.458000183 6.458000183 15.791101831
C 6.458000183 6.458000183 10.040898901
C 19.374000549 19.374000549 15.791101831
C 6.458000183 15.791101831 19.374000549
C 19.374000549 10.040898901 6.458000183
C 19.374000549 15.791101831 6.458000183
C 6.458000183 10.040898901 19.374000549
C 6.458000183 10.040898901 6.458000183
C 19.374000549 15.791101831 19.374000549
C 19.374000549 10.040898901 19.374000549
C 6.458000183 15.791101831 6.458000183
C 15.791101831 6.458000183 19.374000549
C 10.040898901 19.374000549 6.458000183
C 15.791101831 19.374000549 6.458000183
C 10.040898901 6.458000183 19.374000549
C 10.040898901 19.374000549 19.374000549
C 15.791101831 6.458000183 6.458000183
C 10.040898901 6.458000183 6.458000183
C 15.791101831 19.374000549 19.374000549
C 6.458000183 6.458000183 1.389761684
C 19.374000549 19.374000549 24.442239433
C 19.374000549 19.374000549 1.389761684
C 6.458000183 6.458000183 24.442239433
C 19.374000549 6.458000183 24.442239433
C 6.458000183 19.374000549 1.389761684
C 6.458000183 19.374000549 24.442239433
C 19.374000549 6.458000183 1.389761684
C 1.389761684 6.458000183 6.458000183
C 24.442239433 19.374000549 19.374000549
C 1.389761684 19.374000549 19.374000549
C 24.442239433 6.458000183 6.458000183
C 24.442239433 19.374000549 6.458000183
C 1.389761684 6.458000183 19.374000549
C 24.442239433 6.458000183 19.374000549
C 1.389761684 19.374000549 6.458000183
C 6.458000183 1.389761684 6.458000183
C 19.374000549 24.442239433 19.374000549
C 19.374000549 1.389761684 19.374000549
C 6.458000183 24.442239433 6.458000183
C 6.458000183 24.442239433 19.374000549
C 19.374000549 1.389761684 6.458000183
C 19.374000549 24.442239433 6.458000183
C 6.458000183 1.389761684 19.374000549
C 6.458000183 19.374000549 14.305761666
C 19.374000549 6.458000183 11.526239067
C 19.374000549 6.458000183 14.305761666
C 6.458000183 19.374000549 11.526239067
C 19.374000549 19.374000549 11.526239067
C 6.458000183 6.458000183 14.305761666
C 6.458000183 6.458000183 11.526239067
C 19.374000549 19.374000549 14.305761666
C 6.458000183 14.305761666 19.374000549
C 19.374000549 11.526239067 6.458000183
C 19.374000549 14.305761666 6.458000183
C 6.458000183 11.526239067 19.374000549
C 6.458000183 11.526239067 6.458000183
C 19.374000549 14.305761666 19.374000549
C 19.374000549 11.526239067 19.374000549
C 6.458000183 14.305761666 6.458000183
C 14.305761666 6.458000183 19.374000549
C 11.526239067 19.374000549 6.458000183
C 14.305761666 19.374000549 6.458000183
C 11.526239067 6.458000183 19.374000549
C 11.526239067 19.374000549 19.374000549
C 14.305761666 6.458000183 6.458000183
C 11.526239067 6.458000183 6.458000183
C 14.305761666 19.374000549 19.374000549
C 7.307873151 5.608127215 0.694880842
C 18.524128351 20.223872748 25.137120083
C 18.524128351 20.223872748 0.694880842
C 7.307873151 5.608127215 25.137120083
C 18.524128351 5.608127215 25.137120083
C 7.307873151 20.223872748 0.694880842
C 7.307873151 20.223872748 25.137120083
C 18.524128351 5.608127215 0.694880842
C 0.694880842 7.307873151 5.608127215
C 25.137120083 18.524128351 20.223872748
C 0.694880842 18.524128351 20.223872748
C 25.137120083 7.307873151 5.608127215
C 25.137120083 18.524128351 5.608127215
C 0.694880842 7.307873151 20.223872748
C 25.137120083 7.307873151 20.223872748
C 0.694880842 18.524128351 5.608127215
C 5.608127215 0.694880842 7.307873151
C 20.223872748 25.137120083 18.524128351
C 20.223872748 0.694880842 18.524128351
C 5.608127215 25.137120083 7.307873151
C 5.608127215 25.137120083 18.524128351
C 20.223872748 0.694880842 7.307873151
C 20.223872748 25.137120083 7.307873151
C 5.608127215 0.694880842 18.524128351
C 5.608127215 7.307873151 25.137120083
C 20.223872748 18.524128351 0.694880842
C 20.223872748 18.524128351 25.137120083
C 5.608127215 7.307873151 0.694880842
C 5.608127215 18.524128351 0.694880842
C 20.223872748 7.307873151 25.137120083
C 20.223872748 7.307873151 0.694880842
C 5.608127215 18.524128351 25.137120083
C 7.307873151 0.694880842 20.223872748
C 18.524128351 25.137120083 5.608127215
C 18.524128351 0.694880842 5.608127215
C 7.307873151 25.137120083 20.223872748
C 18.524128351 25.137120083 20.223872748
C 7.307873151 0.694880842 5.608127215
C 7.307873151 25.137120083 5.608127215
C 18.524128351 0.694880842 20.223872748
C 0.694880842 5.608127215 18.524128351
C 25.137120083 20.223872748 7.307873151
C 0.694880842 20.223872748 7.307873151
C 25.137120083 5.608127215 18.524128351
C 25.137120083 5.608127215 7.307873151
C 0.694880842 20.223872748 18.524128351
C 25.137120083 20.223872748 18.524128351
C 0.694880842 5.608127215 7.307873151
C 7.307873151 18.524128351 13.610881016
C 18.524128351 7.307873151 12.221119716
C 18.524128351 7.307873151 13.610881016
C 7.307873151 18.524128351 12.221119716
C 18.524128351 18.524128351 12.221119716
C 7.307873151 7.307873151 13.610881016
C 7.307873151 7.307873151 12.221119716
C 18.524128351 18.524128351 13.610881016
C 5.608127215 13.610881016 20.223872748
C 20.223872748 12.221119716 5.608127215
C 20.223872748 13.610881016 5.608127215
C 5.608127215 12.221119716 20.223872748
C 5.608127215 12.221119716 5.608127215
C 20.223872748 13.610881016 20.223872748
C 20.223872748 12.221119716 20.223872748
C 5.608127215 13.610881016 5.608127215
C 5.608127215 20.223872748 12.221119716
C 20.223872748 5.608127215 13.610881016
C 20.223872748 5.608127215 12.221119716
C 5.608127215 20.223872748 13.610881016
C 5.608127215 5.608127215 13.610881016
C 20.223872748 20.223872748 12.221119716
C 20.223872748 20.223872748 13.610881016
C 5.608127215 5.608127215 12.221119716
C 7.307873151 13.610881016 7.307873151
C 18.524128351 12.221119716 18.524128351
C 18.524128351 13.610881016 18.524128351
C 7.307873151 12.221119716 7.307873151
C 18.524128351 12.221119716 7.307873151
C 7.307873151 13.610881016 18.524128351
C 7.307873151 12.221119716 18.524128351
C 18.524128351 13.610881016 7.307873151
C 13.610881016 7.307873151 18.524128351
C 12.221119716 18.524128351 7.307873151
C 13.610881016 18.524128351 7.307873151
C 12.221119716 7.307873151 18.524128351
C 12.221119716 18.524128351 18.524128351
C 13.610881016 7.307873151 7.307873151
C 12.221119716 7.307873151 7.307873151
C 13.610881016 18.524128351 18.524128351
C 13.610881016 5.608127215 5.608127215
C 12.221119716 20.223872748 20.223872748
C 13.610881016 20.223872748 20.223872748
C 12.221119716 5.608127215 5.608127215
C 12.221119716 5.608127215 20.223872748
C 13.610881016 20.223872748 5.608127215
C 12.221119716 20.223872748 5.608127215
C 13.610881016 5.608127215 20.223872748
H 7.876176779 5.039823202 1.157273592
H 17.955823953 20.792177146 24.674727526
H 17.955823953 20.792177146 1.157273592
H 7.876176779 5.039823202 24.674727526
H 17.955823953 5.039823202 24.674727526
H 7.876176779 20.792177146 1.157273592
H 7.876176779 20.792177146 24.674727526
H 17.955823953 5.039823202 1.157273592
H 1.157273592 7.876176779 5.039823202
H 24.674727526 17.955823953 20.792177146
H 1.157273592 17.955823953 20.792177146
H 24.674727526 7.876176779 5.039823202
H 24.674727526 17.955823953 5.039823202
H 1.157273592 7.876176779 20.792177146
H 24.674727526 7.876176779 20.792177146
H 1.157273592 17.955823953 5.039823202
H 5.039823202 1.157273592 7.876176779
H 20.792177146 24.674727526 17.955823953
H 20.792177146 1.157273592 17.955823953
H 5.039823202 24.674727526 7.876176779
H 5.039823202 24.674727526 17.955823953
H 20.792177146 1.157273592 7.876176779
H 20.792177146 24.674727526 7.876176779
H 5.039823202 1.157273592 17.955823953
H 5.039823202 7.876176779 24.674727526
H 20.792177146 17.955823953 1.157273592
H 20.792177146 17.955823953 24.674727526
H 5.039823202 7.876176779 1.157273592
H 5.039823202 17.955823953 1.157273592
H 20.792177146 7.876176779 24.674727526
H 20.792177146 7.876176779 1.157273592
H 5.039823202 17.955823953 24.674727526
H 7.876176779 1.157273592 20.792177146
H 17.955823953 24.674727526 5.039823202
H 17.955823953 1.157273592 5.039823202
H 7.876176779 24.674727526 20.792177146
H 17.955823953 24.674727526 20.792177146
H 7.876176779 1.157273592 5.039823202
H 7.876176779 24.674727526 5.039823202
H 17.955823953 1.157273592 20.792177146
H 1.157273592 5.039823202 17.955823953
H 24.674727526 20.792177146 7.876176779
H 1.157273592 20.792177146 7.876176779
H 24.674727526 5.039823202 17.955823953
H 24.674727526 5.039823202 7.876176779
H 1.157273592 20.792177146 17.955823953
H 24.674727526 20.792177146 17.955823953
H 1.157273592 5.039823202 7.876176779
H 7.876176779 17.955823953 14.073273573
H 17.955823953 7.876176779 11.758727160
H 17.955823953 7.876176779 14.073273573
H 7.876176779 17.955823953 11.758727160
H 17.955823953 17.955823953 11.758727160
H 7.876176779 7.876176779 14.073273573
H 7.876176779 7.876176779 11.758727160
H 17.955823953 17.955823953 14.073273573
H 5.039823202 14.073273573 20.792177146
H 20.792177146 11.758727160 5.039823587
H 20.792177146 14.073273573 5.039823587
H 5.039823202 11.758727160 20.792177146
H 5.039823202 11.758727160 5.039823587
H 20.792177146 14.073273573 20.792177146
H 20.792177146 11.758727160 20.792177146
H 5.039823202 14.073273573 5.039823587
H 5.039823202 20.792177146 11.758727160
H 20.792177146 5.039823587 14.073273573
H 20.792177146 5.039823587 11.758727160
H 5.039823202 20.792177146 14.073273573
H 5.039823202 5.039823587 14.073273573
H 20.792177146 20.792177146 11.758727160
H 20.792177146 20.792177146 14.073273573
H 5.039823202 5.039823587 11.758727160
H 7.876176779 14.073273573 7.876176779
H 17.955823953 11.758727160 17.955823953
H 17.955823953 14.073273573 17.955823953
H 7.876176779 11.758727160 7.876176779
H 17.955823953 11.758727160 7.876176779
H 7.876176779 14.073273573 17.955823953
H 7.876176779 11.758727160 17.955823953
H 17.955823953 14.073273573 7.876176779
H 14.073273573 7.876176779 17.955823953
H 11.758727160 17.955823953 7.876176779
H 14.073273573 17.955823953 7.876176779
H 11.758727160 7.876176779 17.955823953
H 11.758727160 17.955823953 17.955823953
H 14.073273573 7.876176779 7.876176779
H 11.758727160 7.876176779 7.876176779
H 14.073273573 17.955823953 17.955823953
H 14.073273573 5.039823202 5.039823587
H 11.758727160 20.792177146 20.792177146
H 14.073273573 20.792177146 20.792177146
H 11.758727160 5.039823202 5.039823587
H 11.758727160 5.039823202 20.792177146
H 14.073273573 20.792177146 5.039823587
H 11.758727160 20.792177146 5.039823587
H 14.073273573 5.039823202 20.792177146
